<?xml version="1.0" encoding="UTF-8"?>
<edges xmlns:xsi="http://www.w3.org/2001/XMLSchema-instance" xsi:noNamespaceSchemaLocation="http://sumo.dlr.de/xsd/edges_file.xsd">

    <edge id="lane7" from="south" to="intersection2" numLanes="1" speed="13.89" length="1000"/>

    <edge id="intertonorth" from="intersection2" to="north" numLanes="1" speed="13.89" length="100"/>
    
</edges>
