<?xml version="1.0" encoding="UTF-8"?>
<routes xmlns:xsi="http://www.w3.org/2001/XMLSchema-instance" xsi:noNamespaceSchemaLocation="http://sumo.dlr.de/xsd/routes_file.xsd">

    <vType id="CV" 
          length="6.44" 
          minGap="0" 
          maxSpeed="13.89" 
          accel="2.6" 
          decel="4.5" 
          sigma="0.0"
          tau="0.5"
          color="red"
          carFollowModel="Krauss"
          guiShape="passenger"/>

    <vType id="NC" 
          length="6.44" 
          minGap="0" 
          maxSpeed="13.89" 
          accel="2.6" 
          decel="4.5" 
          sigma="0.0" 
          tau="0.5"
          color="blue"
          carFollowModel="Krauss"
          guiShape="passenger"/>

    <route id="route_lane7_north" edges="lane7 intertonorth"/> 

    <!--  Traffic Flow Definitions -->
    <!-- parameter calculations:
         - V/C ratio = 0.5
         - saturation volume = 3600s / 1.59s = 2264 veh/h
         - capacity = 2264 * (22s绿灯 / 60s) = 831 veh/h
         - demand flow = 0.5 * 831 = 415 veh/h
         - CV = 415 * 0.4 = 166 veh/h (40%)
         - NC = 415 * 0.6 = 249 veh/h (60%)
    -->
    
    <!-- CV to north -->
    <flow id="CV_flow_north" 
          type="CV" 
          route="route_lane7_north" 
          begin="0" 
          end="3600" 
          vehsPerHour="166"
          departLane="0" 
          departSpeed="max"
          departPos="base"/>
    
    <!-- NC to north -->
    <flow id="NC_flow_north" 
          type="NC" 
          route="route_lane7_north" 
          begin="0" 
          end="3600" 
          vehsPerHour="249"
          departLane="0" 
          departSpeed="max"
          departPos="base"/>

</routes>
